%nproc=24
%chk=BzmH.H2O.chk
%mem=7000mb
# tpsstpss/6-31G(d) opt integral=ultrafine scf=tight

BzmH.H2O

1 1 
N	-0.109249	0.000482	1.005112
C	-0.473431	0.775234	-0.101631
C	-1.215078	-0.071688	-0.964370
N	-1.255914	-1.316858	-0.324305
C	-0.588101	-1.241325	0.847097
C	-0.224429	2.120012	-0.419715
C	-0.748442	2.575052	-1.633646
C	-1.490352	1.726057	-2.495975
C	-1.740784	0.385679	-2.182609
H	0.454983	0.353507	1.827618
H	-1.714332	-2.159286	-0.674389
H	-0.461918	-2.063805	1.548350
H	0.347519	2.768883	0.248905
H	-0.582690	3.615561	-1.928411
H	-1.878732	2.131800	-3.434906
H	-2.313234	-0.264065	-2.850567
O	1.347420	1.205890	2.955124
H	2.297090	1.025733	3.108855
H	0.982674	1.448138	3.830464

