%nproc=24
%chk=H2O.Co.1.Corrin.H2O.chk
%mem=7000mb

# tpsstpss/6-31G(d) freq integral=ultrafine scf=tight

H2O.Co.1.Corrin.H2O

0 1 
O	1.092137	1.170442	-2.829399
H	0.690926	0.753161	-2.027750
H	1.145997	2.105553	-2.550038
Co	-0.131145	-0.006355	-0.000138
N	-1.530505	-1.268099	-0.061154
C	-1.370684	-2.656134	-0.080238
C	-2.698035	-3.357891	0.137730
C	-3.722822	-2.242772	-0.132054
C	-2.873570	-0.989513	-0.040892
C	-0.176203	-3.317790	-0.244526
C	1.056063	-2.639405	-0.367555
N	1.119630	-1.313431	-0.274825
C	2.534707	-0.862943	-0.447525
C	3.369417	-2.120874	-0.150306
C	2.421237	-3.262314	-0.591021
C	2.641601	0.346947	0.471245
N	1.333736	1.047956	0.283044
C	1.516654	2.364990	0.356262
C	2.970651	2.727763	0.597090
C	3.694891	1.428014	0.171942
C	-3.401688	0.295586	-0.005409
C	-2.649863	1.462585	0.024520
N	-1.277308	1.490721	0.048617
C	-0.865625	2.824170	0.039262
C	-2.041635	3.754403	-0.195986
C	-3.253311	2.852220	0.096538
C	0.432331	3.257779	0.199799
H	2.657183	-0.529130	-1.490487
H	2.689064	0.003173	1.517045
H	-4.486315	0.394468	-0.007678
H	0.624851	4.329113	0.198826
H	-0.183531	-4.405800	-0.256356
H	3.897158	1.453816	-0.908306
H	4.640291	1.263569	0.702368
H	-4.559825	-2.233623	0.577738
H	3.286741	3.611510	0.027002
H	-2.046151	4.086201	-1.246366
H	3.140694	2.950292	1.663875
H	-4.081421	2.986125	-0.610893
H	3.559976	-2.192879	0.929746
H	4.331056	-2.128699	-0.677080
H	2.560305	-3.509532	-1.656668
H	2.558691	-4.189217	-0.019227
H	-1.994376	4.652923	0.431301
H	-2.815970	-4.235594	-0.509197
H	-3.653351	3.037808	1.106493
H	-2.761667	-3.705812	1.180725
H	-4.152590	-2.331465	-1.142771
O	0.739164	-1.112965	2.897159
H	0.328503	-0.314553	3.283282
H	0.490681	-1.028573	1.943024

