51
0 1 // H2O.Co.1.Corrin.H2O.bp86.631gs.opt.log // Final SCF Energy = -2491.47491929
O	0.840287	0.885795	3.007527
H	0.447532	0.549578	2.161581
H	1.790759	0.913233	2.772284
Co	-0.034406	-0.090445	0.021181
N	-1.402503	-1.388029	-0.078803
C	-2.773225	-1.120525	-0.160109
C	-3.558016	-2.381177	-0.476617
C	-2.542588	-3.502063	-0.188202
C	-1.225485	-2.749620	-0.134399
C	-3.354275	0.119624	-0.003960
C	-2.592447	1.289809	0.216370
N	-1.259602	1.249331	0.236660
C	-0.717783	2.618410	0.494491
C	-1.878361	3.563833	0.134731
C	-3.124911	2.694494	0.435676
C	0.569274	2.655353	-0.320699
N	1.149360	1.291783	-0.120616
C	2.480291	1.372934	-0.067349
C	2.973982	2.800860	-0.223264
C	1.697127	3.619140	0.092164
C	0.015104	-3.379450	-0.084598
C	1.235542	-2.720287	0.017857
N	1.370908	-1.352300	0.053508
C	2.728220	-1.049578	0.192592
C	3.543097	-2.304550	0.452889
C	2.576181	-3.431495	0.044536
C	3.273763	0.216737	0.123043
H	-0.454953	2.679818	1.570973
H	0.312062	2.754812	-1.395526
H	0.030228	-4.474052	-0.120345
H	4.358204	0.325317	0.224433
H	-4.443224	0.199789	-0.076201
H	1.637160	3.817358	1.178675
H	1.653975	4.584516	-0.438886
H	-2.538186	-4.301923	-0.949155
H	3.823265	3.032604	0.443970
H	3.793504	-2.370080	1.530411
H	3.322281	2.979232	-1.261571
H	2.582167	-4.292469	0.735285
H	-1.841845	3.806537	-0.943530
H	-1.856118	4.507688	0.704526
H	-3.462027	2.820219	1.485151
H	-3.989145	2.924179	-0.212147
H	4.496415	-2.308106	-0.102571
H	-4.485615	-2.454931	0.116060
H	2.818183	-3.824180	-0.963638
H	-3.852698	-2.375771	-1.544525
H	-2.741094	-3.986752	0.788651
O	-0.711027	0.911356	-2.951273
H	0.115950	0.474119	-3.241053
H	-0.756465	0.642213	-1.997723
