%nproc=24
%chk=H2O.Co.2.Corrin.Bzm.chk
%mem=7000mb
# tpsstpss/6-31G(d) opt integral=ultrafine scf=tight

H2O.Co.2.Corrin.Bzm

1 2 
O	0.219551	0.217495	-2.818358
H	-0.537078	-0.237769	-3.242553
H	0.088929	1.162740	-3.040702
Co	-0.020396	0.071207	-0.325745
N	-1.352069	-1.318028	-0.476077
C	-1.096698	-2.688511	-0.497467
C	-2.389290	-3.487369	-0.564321
C	-3.487892	-2.408752	-0.468198
C	-2.703116	-1.109159	-0.469597
C	0.158964	-3.265352	-0.471013
C	1.362775	-2.503860	-0.489322
N	1.349993	-1.182020	-0.470424
C	2.722575	-0.648929	-0.685013
C	3.635940	-1.805499	-0.238730
C	2.779076	-3.049999	-0.591676
C	2.743327	0.699662	0.033262
N	1.398818	1.277576	-0.242385
C	1.474131	2.582918	-0.437369
C	2.902043	3.091222	-0.331317
C	3.730801	1.785482	-0.445133
C	-3.313599	0.147104	-0.463681
C	-2.647923	1.373318	-0.498014
N	-1.288355	1.516315	-0.482724
C	-0.966446	2.858682	-0.676853
C	-2.218268	3.689550	-0.911376
C	-3.359549	2.711637	-0.565210
C	0.314385	3.376639	-0.674821
C	-0.218811	0.203830	4.155632
C	-0.191516	0.865312	2.894009
N	-0.126100	-0.089416	1.867656
C	-0.113249	-1.268465	2.482896
N	-0.168024	-1.152907	3.847479
C	-0.228465	2.272306	2.844466
C	-0.290512	2.966267	4.058014
C	-0.317039	2.290561	5.303330
C	-0.281870	0.893402	5.376438
H	2.834636	-0.460773	-1.773608
H	2.823607	0.530883	1.127210
H	-4.407933	0.170999	-0.464255
H	0.441847	4.449315	-0.847414
H	0.228930	-4.357154	-0.486092
H	4.003471	1.602998	-1.500995
H	4.659953	1.810257	0.145971
H	-4.085566	-2.494195	0.458255
H	3.144429	3.837259	-1.107726
H	-2.267747	4.010585	-1.969357
H	3.049147	3.587337	0.648699
H	-4.181335	2.710389	-1.301029
H	3.800736	-1.754797	0.853835
H	4.618726	-1.799134	-0.736490
H	2.975144	-3.399198	-1.625267
H	2.949681	-3.912508	0.075724
H	-2.221339	4.607524	-0.300214
H	-2.440398	-4.052067	-1.513103
H	-3.810196	2.942821	0.419195
H	-2.443778	-4.233155	0.247802
H	-4.204628	-2.445489	-1.307726
H	-0.065390	-2.233051	1.976887
H	-0.168769	-1.925489	4.511357
H	-0.208839	2.801485	1.887966
H	-0.319627	4.060905	4.048323
H	-0.366311	2.872742	6.229076
H	-0.302498	0.370323	6.337875

