%nproc=24
%chk=H2O.Co.2.Corrin.Bzm.chk
%mem=7000mb

# tpsstpss/6-311+G(d,p) integral=ultrafine scf=tight

H2O.Co.2.Corrin.Bzm

1 2 
O	1.881541	0.515538	-2.574708
H	2.475907	-0.213145	-2.841515
H	1.226214	0.573056	-3.297750
Co	0.573576	0.025050	-0.508247
N	1.623338	-1.525671	-0.056476
C	2.778406	-1.525011	0.721749
C	3.324955	-2.933691	0.886074
C	2.220287	-3.819324	0.277469
C	1.283885	-2.811158	-0.361788
C	3.370248	-0.404445	1.264763
C	2.899080	0.917593	1.024596
N	1.819534	1.146657	0.303063
C	1.667232	2.606035	0.048984
C	2.441901	3.254597	1.209468
C	3.558134	2.211688	1.476176
C	0.164749	2.825339	-0.121866
N	-0.285033	1.634419	-0.895456
C	-1.201376	1.962242	-1.784575
C	-1.518745	3.446976	-1.753000
C	-0.318498	4.026271	-0.961861
C	0.197909	-3.177058	-1.156557
C	-0.678518	-2.296520	-1.786886
N	-0.635577	-0.939348	-1.653075
C	-1.548918	-0.362369	-2.531199
C	-2.208411	-1.422342	-3.397728
C	-1.797605	-2.738685	-2.709403
C	-1.816750	0.986974	-2.621603
C	-2.168197	-0.441464	3.006441
C	-1.958103	-0.199207	1.623622
N	-0.585431	-0.251424	1.342157
C	0.000090	-0.511189	2.503210
N	-0.894192	-0.635967	3.530501
C	-3.058623	0.045042	0.784078
C	-4.329787	0.036180	1.361263
C	-4.519379	-0.208631	2.741309
C	-3.440236	-0.452680	3.593061
H	2.157532	2.818893	-0.915313
H	-0.326615	2.792509	0.863866
H	0.043105	-4.240754	-1.326321
H	-2.549124	1.319655	-3.353719
H	4.268804	-0.535890	1.863731
H	0.473496	4.334563	-1.658509
H	-0.588866	4.891733	-0.347699
H	1.682012	-4.394301	1.045166
H	-1.627448	3.875514	-2.757108
H	-1.811412	-1.368916	-4.422462
H	-2.471562	3.610003	-1.225062
H	-1.476811	-3.520069	-3.408285
H	1.791300	3.343791	2.091094
H	2.831888	4.248298	0.964024
H	4.451319	2.411776	0.863138
H	3.885243	2.174163	2.522914
H	-3.293150	-1.279896	-3.463628
H	4.272327	-3.031687	0.337175
H	-2.623375	-3.153941	-2.112060
H	3.538719	-3.166468	1.936330
H	2.599458	-4.542481	-0.455362
H	1.068735	-0.616459	2.646562
H	-0.662390	-0.832641	4.498784
H	-2.921508	0.235025	-0.277160
H	-5.200686	0.222525	0.735222
H	-5.528210	-0.206602	3.149304
H	-3.584636	-0.640541	4.655191

--link1--

%nproc=24
%mem=7000mb
%chk=H2O.Co.2.Corrin.Bzm.chk
%nosave

# tpsstpss chkbasis integral=ultrafine scf=tight geom=check scrf=(smd,solvent=water, read)

H2O.Co.2.Corrin.Bzm

1 2

radii=Bondi

